/*--------------------------------*- C++ -*----------------------------------*\
  =========                 |
  \\      /  F ield         | OpenFOAM: The Open Source CFD Toolbox
   \\    /   O peration     | Website:  https://openfoam.org
    \\  /    A nd           | Version:  9
     \\/     M anipulation  |
\*---------------------------------------------------------------------------*/
FoamFile
{
    format      ascii;
    class       volScalarField;
    object      T;
}
// * * * * * * * * * * * * * * * * * * * * * * * * * * * * * * * * * * * * * //

#include "$FOAM_CASE/constant/initialConditions"

dimensions      [0 0 0 1 0 0 0];

internalField   uniform $Tin;

boundaryField
{
    inlet
    {
        type            fixedValue;
        value           $internalField;
    }
    
    outlet
    {
        type            zeroGradient;
    }

    flowSym
    {
        type            symmetry;
    }
    
    flow_to_clad
    {
        type            compressible::turbulentTemperatureCoupledBaffleMixed;
        neighbourFieldName T;
        kappa           kappa;
        Tnbr            T;
        value           uniform $Tin;
    }


    #includeEtc "caseDicts/setConstraintTypes"
}


// ************************************************************************* //
