/*--------------------------------*- C++ -*----------------------------------*\
  =========                 |
  \\      /  F ield         | OpenFOAM: The Open Source CFD Toolbox
   \\    /   O peration     | Website:  https://openfoam.org
    \\  /    A nd           | Version:  9
     \\/     M anipulation  |
\*---------------------------------------------------------------------------*/
FoamFile
{
    format      ascii;
    class       volVectorField;
    object      U;
}
// * * * * * * * * * * * * * * * * * * * * * * * * * * * * * * * * * * * * * //

Uinlet          (0 0 3.238308658);

dimensions      [0 1 -1 0 0 0 0];

internalField   uniform $Uinlet;

boundaryField
{
    inlet
    {
        type            fixedValue;
        value           $internalField;
    }
    
/*
    outlet
    {
        type            inletOutlet;
        inletValue      $internalField;
        value           $internalField;
    }
*/
    outlet
    {
        type            zeroGradient;
    }
    flowSym
    {
        type            symmetry;
    }
    
    flow_to_clad
    {
        type            fixedValue;
        value           uniform (0 0 0);
    }
    #includeEtc "caseDicts/setConstraintTypes"
}


// ************************************************************************* //
