/*--------------------------------*- C++ -*----------------------------------*\
  =========                 |
  \\      /  F ield         | OpenFOAM: The Open Source CFD Toolbox
   \\    /   O peration     | Website:  https://openfoam.org
    \\  /    A nd           | Version:  9
     \\/     M anipulation  |
\*---------------------------------------------------------------------------*/
FoamFile
{
    format      ascii;
    class       dictionary;
    object      fvModels;
}
// * * * * * * * * * * * * * * * * * * * * * * * * * * * * * * * * * * * * * //
energySource
{
    type            coded;
    
    selectionMode   all;
    
    field           e;
    
    codeInclude
    #{
    #};
    
    codeCorrect
    #{
        //Pout<< "**codeCorrect**" << endl;
    #};
    
    codeAddRhoSup
    #{
        const Time& time = mesh().time();
        const scalarField& V = mesh().V();
        scalarField& heSource = eqn.source();
        const volScalarField volpowerfuel
        (  
            IOobject  
            (  
                "volpowerfuel",  
                time.constant(),  
                mesh(),  
                IOobject::MUST_READ,  
                IOobject::AUTO_WRITE  
            ),  
            mesh() 
        );
        
        forAll(heSource, i)
        {
//            label celli = mesh().cellShapes()[i];
            heSource[i] -= volpowerfuel[i]*V[i];
        }
    #};
    
    codeConstrain
    #{
    #};
}
//************************************************************************** //
